*SRC=MMBTA92;DI_MMBTA92;BJTs PNP; Si;  300V  0.500A  60.0MHz   Diodes Inc.PNP Transistor
.MODEL DI_MMBTA92  PNP (IS=177f NF=1.00 BF=239 VAF=312
+ IKF=72.9m ISE=33.4p NE=2.00 BR=4.00 NR=1.00
+ VAR=20.0 IKR=0.180 RE=1.16 RB=4.63 RC=0.463
+ XTB=1.5 CJE=125p VJE=1.10 MJE=0.500 CJC=40.2p VJC=0.300 MJC=0.300 
+ TF=2.18n TR=415n EG=1.12 )
