*SRC=MMBTA42;DI_MMBTA42;BJTs NPN; Si;  300V  0.500A  219MHz   Diodes Inc. NPN Transistor 
.MODEL DI_MMBTA42  NPN (IS=51.0f NF=1.00 BF=194 VAF=312 
+ IKF=0.182 ISE=34.9p NE=2.00 BR=4.00 NR=1.00 
+ VAR=24.0 IKR=0.450 RE=11.6 RB=46.3 RC=4.63 
+ XTB=1.5 CJE=58.7p VJE=1.10 MJE=0.500 CJC=18.9p VJC=0.300 
+ MJC=0.300 TF=481p TR=115n EG=1.12 )